Geom Title=diseno
Program Version=6.60
Viewing Rectangle= 684966.727929391 , 686674.890953978 , 5507964.07275299 , 5506919.14561631 

River Reach=pilmaiquen      ,Main_path       
Reach XY= 14 
       686542.93      5506929.39        686527.9      5507102.26
       686448.98      5507211.77       686214.82       5507297.8
       686036.55      5507318.34       685857.18      5507354.84
       685676.32      5507433.23       685506.08      5507492.55
       685405.64      5507624.86       685346.12      5507748.37
       685254.15      5507807.69       685173.27      5507835.71
       685085.88      5507822.68       685046.45       5507870.4
Rch Text X Y=686168.81,5507164.6425
Reverse River Text= 0 

Type RM Length L Ch R = 1 ,39      ,70,70,70
XS GIS Cut Line=3
686419.0459233365506968.81123953686538.5950904975506979.20338228
686658.1442576595506989.59552504
Node Last Edited Time=oct-16-2025 10:29:12
#Sta/Elev= 246 
       0      83    .652  82.915   1.273   82.85   2.274  82.785   7.957   82.72
  10.297  82.655  13.811   82.59   14.98  82.525  15.481   82.46  23.593  82.395
  25.697   82.33  27.271  82.265  38.187    82.2  39.445  82.135  40.196   82.07
  40.536  82.005  40.604   81.94  43.425  81.875  45.713   81.81  46.076  81.745
  48.698   81.68  49.491  81.615  50.865   81.55  52.659  81.485   53.31   81.42
  53.682  81.355  53.799   81.29  53.928  81.225  53.971   81.16  54.035  81.095
  54.362   81.03  54.491  80.965  55.186    80.9  56.335  80.835   56.42   80.77
  56.433  80.705  56.457   80.64  56.484  80.575  57.569   80.51  57.736  80.445
  58.999   80.38  59.911  80.315  60.275   80.25  60.279  80.185  60.281   80.12
  60.423  80.055  60.543   79.99  60.592  79.925  60.696   79.86  60.741  79.795
  60.782   79.73  61.948  79.665  62.731    79.6  62.757  79.535  62.787   79.47
  62.944  79.405  63.656   79.34  63.933  79.275  65.157   79.21  67.076  79.145
  67.325   79.08  67.549  79.015  67.906   78.95  68.196  78.885    69.8   78.82
  70.334  78.755  71.235   78.69  71.475  78.625  71.626   78.56  71.664  78.495
  71.746   78.43  73.321  78.365  75.015    78.3  75.592  78.235  78.111   78.17
  81.166  78.105  82.272   78.04  85.121  77.975    87.3   77.91  88.347  77.845
  88.644   77.78  89.159  77.715  89.536   77.65  90.225  77.585  94.885   77.52
   97.07  77.455  97.737   77.39  98.325  77.325 100.291   77.26 102.794  77.195
 102.851   77.13 102.886  77.065 103.034      77 141.762      77 142.338  77.721
 142.645      78 143.056  78.348 143.173   78.43 143.706  78.761 144.076      79
  144.14  79.042 145.469      80 146.064   80.72 146.301      81 146.646  81.421
 146.787  81.574 146.992  81.798 147.138  81.941 147.215      82  148.74  82.943
 148.809      83 148.867  83.069 150.299      84 150.996  84.441 151.849      85
 151.962  85.156 152.923      86 153.025  86.162 153.546      87 153.589  87.069
 153.906   87.58 154.095   87.83 154.121  87.863 154.175  87.946  154.21      88
 154.663  88.692 155.147      89 155.655  89.607 155.997      90 156.346  90.428
 156.732      91 157.321  91.877 157.381      92 157.455  92.152 157.868      93
 158.315  93.913 158.359      94 158.377   94.03 158.797      95 158.849  95.127
 159.255      96 159.305  96.116 159.674      97  159.84  97.397 160.094      98
 160.306   98.47 160.426  98.667 160.687      99 160.787  99.145 161.485     100
 161.661 100.234 162.281     101 162.497 101.305 163.056     102 163.804 102.914
 163.873     103  164.55 103.909 164.614     104 164.668 104.103 165.099 104.746
 165.259     105  165.41 105.239 165.892     106 166.068 106.276 166.524     107
 167.556   107.9 167.626     108 167.971 108.316  168.62     109 169.041 109.415
 169.616     110 170.244  110.59 170.657     111 171.387 111.659  171.74     112
 172.537 112.695 172.859     113 174.497 113.523 175.076 113.719 175.953     114
 179.364     114 179.694 113.997 179.996 113.997  180.82 113.996 181.031 113.995
 181.113 113.995 181.722     114 183.906     114 184.251 113.998 184.296 113.998
 184.844 113.997 185.809     114 187.101     114 187.349 113.974 189.175  113.63
 189.889 113.499 190.455  113.45 190.973 113.456 191.193 113.459 192.025 113.425
 192.293 113.366 193.065 113.119 193.205 113.096  193.41     113 193.542 112.871
 194.442     112 195.135 111.346 195.477     111 196.471 110.091 196.582     110
 196.682 109.923 197.051 109.526 197.161 109.395 197.461     109 197.966 108.187
 198.085     108 198.227 107.791 198.774     107 199.294 106.248 199.489     106
 199.718 105.637 200.168     105 200.354 104.687 200.692     104 200.931     104
 201.466 103.999 201.982 103.999  202.45  103.77 202.451 103.786 202.455 103.803
 202.456 103.819 202.457 103.834 202.459  103.85  202.46 103.865 202.462 103.881
 202.464 103.896 202.475 103.928 202.484 104.028  202.49 104.056  237.06  90.733
 237.311  91.171 237.644  91.582 237.889  92.013 237.995  92.482 238.193  92.922
     240  92.542
#Mann= 3 ,0,0
       0    .025       0       0     .03       0     240    .028       0
Bank Sta=0,240
XS Rating Curve= 0 ,0
XS HTab Starting El and Incr=77.15,0.3, 100 
XS HTab Horizontal Distribution= 5 , 5 , 5 
Exp/Cntr=0.3,0.1

Type RM Length L Ch R = 6 ,38      ,,,
Node Last Edited Time=oct-16-2025 10:35:07
Lateral Weir Pos= 0 
Lateral Weir End=                ,                ,        ,                
Lateral Weir Distance=0
Lateral Weir TW Multiple XS=0
Lateral Weir WD=2
Lateral Weir Coef=1.1
Lateral Weir Is Sharp=-1 
LW OverFlow Method 2D=0
LW OverFlow Use Velocity Into 2D=0
Lateral Weir WSCriteria=-1 
Lateral Weir Flap Gates= 2 
Lateral Weir Hagers EQN= 0 ,,,,,
Lateral Weir SS=0.05,0.05,
Lateral Weir Type= 0 
Lateral Weir Connection Pos and Dist= 3 ,
Lateral Weir SE= 2 
      30      92      80      92
Lateral Weir Centerline= 0 
LW Gate Name Wd,H,Inv,GCoef,Exp_T,Exp_O,Exp_H,Type,WCoef,Is_Ogee,SpillHt,DesHd,#Openings
Gate #1     ,30,5,85,0.7,0,1,0.5, 0 ,1.67, 0 ,,, 1 ,0,0.8, 0 ,0.6,,0,0,0, 0 
      60
LW Gate Opening=1,bocatoma,0
LW Div RC= 0 ,False,,

Type RM Length L Ch R = 1 ,37      ,50,50,50
XS GIS Cut Line=3
686414.7158638555507018.62339251686534.2650310175507029.01553527
686653.8141981785507039.40767802
Node Last Edited Time=oct-16-2025 10:05:11
#Sta/Elev= 348 
       0      83    .101   82.73    .124    82.7    .872   82.67   1.559   82.64
   2.137   82.61   2.492   82.58   2.852   82.55   2.862   82.52   2.881   82.49
   2.883   82.46    2.89   82.43   2.895    82.4    3.08   82.37   3.156   82.34
   3.216   82.31   3.248   82.28   3.312   82.25   3.401   82.22   3.497   82.19
   3.635   82.16   3.654   82.13   5.015    82.1   7.483   82.07   9.095   82.04
   11.51   82.01  13.079   81.98  13.922   81.95  14.868   81.92  16.657   81.89
  19.155   81.86  19.157   81.83    19.2    81.8  19.202   81.77  19.577   81.74
  21.324   81.71   21.74   81.68  22.008   81.65  22.887   81.62  22.929   81.59
    23.6   81.56   23.63   81.53  24.035    81.5   25.76   81.47   26.69   81.44
  26.705   81.41  27.139   81.38  29.457   81.35  29.734   81.32  30.204   81.29
  30.513   81.26  31.224   81.23  32.233    81.2  32.569   81.17  32.601   81.14
   33.92   81.11  35.131   81.08  36.207   81.05  36.427   81.02  36.462   80.99
  36.479   80.96  36.595   80.93  36.656    80.9  36.839   80.87  40.194   80.84
  41.628   80.81   41.84   80.78  44.146   80.75  44.167   80.72  44.198   80.69
  44.268   80.66   44.27   80.63  44.275    80.6  45.909   80.57  45.916   80.54
  46.007   80.51  46.022   80.48  46.037   80.45  47.799   80.42  48.679   80.39
  49.907   80.36   50.32   80.33  50.323    80.3  50.374   80.27  50.477   80.24
  50.523   80.21  51.055   80.18  51.287   80.15  51.319   80.12  51.386   80.09
  51.425   80.06  51.623   80.03  52.871      80  53.469   79.97  53.802   79.94
  53.844   79.91  53.869   79.88  53.958   79.85  54.493   79.82   59.38   79.79
  60.573   79.76  60.608   79.73  61.056    79.7  61.071   79.67  61.224   79.64
  61.436   79.61   61.59   79.58   61.66   79.55   62.12   79.52  62.223   79.49
  62.474   79.46    66.1   79.43  66.464    79.4  67.919   79.37  68.437   79.34
  68.651   79.31   68.75   79.28   68.83   79.25   68.86   79.22  69.096   79.19
  69.157   79.16  69.255   79.13  69.337    79.1   69.45   79.07  69.516   79.04
  69.649   79.01  69.673   78.98  71.319   78.95  71.507   78.92  72.297   78.89
  72.302   78.86  72.321   78.83  72.376    78.8  72.463   78.77  72.572   78.74
  72.598   78.71  72.653   78.68  72.775   78.65  72.814   78.62  73.304   78.59
  73.662   78.56  73.727   78.53   73.81    78.5  74.324   78.47  75.672   78.44
  76.058   78.41  76.812   78.38  77.162   78.35  77.202   78.32  77.302   78.29
  77.672   78.26  77.756   78.23  77.955    78.2  78.517   78.17  79.193   78.14
  79.548   78.11  79.759   78.08  81.346   78.05  81.376   78.02  81.971   77.99
  82.024   77.96  82.048   77.93  82.112    77.9  82.123   77.87  82.144   77.84
  82.176   77.81  82.917   77.78  83.334   77.75   83.59   77.72  83.727   77.69
  84.017   77.66  84.442   77.63  84.748    77.6  84.773   77.57  84.888   77.54
  85.191   77.51   85.23   77.48  85.394   77.45  85.413   77.42  85.418   77.39
  85.684   77.36  85.758   77.33  85.913    77.3  86.617   77.27  86.911   77.24
  88.039   77.21   88.15   77.18  88.173   77.15  89.669   77.12  90.661   77.09
  97.103   77.06  97.151   77.03  97.236      77 140.111      77 140.113  77.002
 140.125  77.012 141.092      78 141.305  78.227 142.181      79 142.972  79.696
 143.283      80 144.253  80.839 144.421      81 144.637   81.13 145.378  81.486
 146.254      82  147.21  82.844 147.383      83 147.535  83.206 147.555  83.233
 147.764   83.47 147.865  83.625 148.101      84 148.621  84.634 148.915      85
 149.767  85.802 149.959      86 150.901  86.912 150.988      87 151.983  87.982
 152.001      88 152.019  88.018 152.343   88.34 153.024      89 153.396  89.287
 153.923      90 154.349  90.786 154.478      91 154.753  91.428 155.127      92
 155.489  92.522 155.797      93 155.834  93.057 156.394      94 156.542  94.192
 157.007      95  157.45  95.969 157.471      96 157.575  96.224 157.873  96.817
 157.953      97 158.007  97.104 158.447      98 158.591  98.286 158.945      99
 159.379  99.805 159.473     100 159.629 100.293 160.225     101 161.123 101.951
 161.183     102 161.905 102.465 162.602 102.921 162.702 102.981 162.733     103
 162.844 103.063 164.607     104 165.163 104.341  166.24 104.588 166.523 104.701
 166.672 104.771 166.713 104.787 166.748 104.801 166.837 104.828 167.044 104.882
  167.22 104.887 167.396 104.882 167.534 104.865 167.721 104.839 168.081  104.77
 171.024 104.696 171.154 104.588 171.776     104  172.49 103.376 172.977     103
 173.152 102.756 173.767 102.043 173.808     102 173.836 101.961 174.608     101
 174.796 100.714 175.623     100 176.455  99.093 176.512   99.12  176.52  99.106
 176.919  98.905 177.303  98.928 177.751  99.371 178.251  98.636 178.576  98.198
 178.925   97.88 179.598  97.388 180.083  97.081 181.249  97.055  182.22  97.042
 182.716  96.794  183.15  96.426 183.533  96.069 184.328  95.685 185.011  95.358
 185.494  94.958 185.958  94.585 186.487  94.289 186.795  93.887 187.395  93.716
 187.595  93.293 188.132  93.151 188.713   92.78 190.304  93.415 191.457   93.82
 191.694  93.553 192.455  93.752 193.115   94.32 193.797  94.506 194.641  95.282
 195.359  95.926 195.505  96.374 195.616  96.783 195.692  97.157  195.75  97.511
  195.88  97.418 195.946  97.779 196.122  98.208 196.239  98.587 196.342   98.95
 196.364  99.259 196.386  99.567 196.837  99.345  197.27  99.133 197.301  99.472
 197.372  99.825 197.403 100.158 197.434 100.489 197.465 100.819 197.498 101.146
 197.532 101.472 197.567 101.796 197.803 102.463 198.002 104.601 198.055 104.897
 198.116 105.188 222.764  95.689 223.085  96.249 223.511  96.775 223.824  97.327
 223.959  97.928 224.213   98.49     240  95.175
#Mann= 3 ,0,0
       0    .025       0       0     .03       0     240    .028       0
Bank Sta=0,240
XS Rating Curve= 0 ,0
XS HTab Starting El and Incr=77.15,0.3, 93 
XS HTab Horizontal Distribution= 5 , 5 , 5 
Exp/Cntr=0.3,0.1

Type RM Length L Ch R = 5 ,36      ,,,
Node Last Edited Time=oct-15-2025 16:03:03
IW Pilot Flow=0
#Inline Weir SE= 2 
       0      92     200      92
IW Dist,WD,Coef,Skew,MaxSub,Min_El,Is_Ogee,SpillHt,DesHd
0,20,1.4,0,0.98,, 0 ,,,0.5,0.5,
IW Gate Name Wd,H,Inv,GCoef,Exp_T,Exp_O,Exp_H,Type,WCoef,Is_Ogee,SpillHt,DesHd,#Openings
Gate #1     ,5,8,83,0.6,0,1,0.5, 0 ,1.67, 0 ,,, 4 ,0,0.8, 0 ,0.6,,0,0,0, 0 
      65      71      77      83
IW Gate Opening=1,puerta_1,0
IW Gate Opening=2,puerta_2,0
IW Gate Opening=3,puerta_3,0
IW Gate Opening=4,puerta_4,0
Inline Weir Flap Gates= 0 
IW Outlet Rating Curve= 0 ,False,,

Type RM Length L Ch R = 1 ,35      ,50,50,50
XS GIS Cut Line=3
686410.385804375 5507068.4355455686529.9349715365507078.82768825
686649.484138698  5507089.219831
Node Last Edited Time=oct-09-2025 17:46:23
#Sta/Elev= 245 
       0  90.002     .44      90    .509  89.998    .553  89.998    .931   89.96
   1.551  89.905  11.901  89.006  12.403  89.006  12.612  89.005  13.238  89.005
  13.931  89.004  14.882  89.004  15.285  89.003  15.563  89.003  16.798  89.001
  17.673      89  17.756  88.994  17.808  88.993  17.919   88.99  22.036  88.162
  22.493  88.104  22.762      88  23.238  87.688  24.399      87  25.318  86.522
  25.547  86.493  25.758  86.483  26.192  86.323  26.562  86.364   27.05  86.309
  27.237  86.321   27.87  86.154  27.929  86.147  28.089   86.07  28.131  86.057
  28.198      86  29.022  85.349   29.44      85  30.178  84.392  30.928      84
  31.227  83.876  31.802  83.724  33.265  83.421  34.542  83.628   36.24  83.808
  36.574  83.773  36.795  83.813  37.023  83.802  37.698  83.576  37.978  83.517
  38.209  83.476   38.64   83.27  38.779  83.226  38.887  83.182  38.936  83.159
  39.261      83  41.285   82.51  41.407  82.484  41.866  82.376  42.168  82.318
  42.422  82.295  42.694  82.267  43.555  82.192  43.658  82.173  44.533  82.072
  45.042  82.005  45.122  82.004  45.214  82.002  45.288      82  45.671  81.935
  47.567  81.658  48.227  81.589   49.78  81.374   52.39  81.002  52.409  81.002
  52.603      81  53.128  80.978  58.153  80.203  58.985  80.087  59.553  80.001
  59.623      80  59.716      80  59.742  79.999  60.665  79.994  60.744  79.995
  60.761  79.995  60.799  79.994  61.202  79.994  62.711   79.91  65.828  79.751
  66.099  79.738  66.454  79.727  68.862   79.63  74.318  79.382  76.226  79.293
   77.42  79.239  81.673  79.021  82.098      79  82.786   78.89  85.198  78.577
  86.816  78.211  87.606  78.052  87.709  78.032  87.756  78.024  87.883      78
  88.349  77.995   88.43  77.995  91.773  77.723  95.378  77.479  99.365  77.154
 100.862  77.021 101.531  77.006 101.679      77 141.652      77 141.939  77.169
 142.173  77.319 142.543  77.563 142.698  77.681 143.171      78 143.478  78.226
  144.65      79 145.376  79.532 145.966      80 146.725  80.573 147.261      81
 147.916  81.525 148.506      82 149.003  82.399 149.467      83 150.132  83.846
 150.247      84 152.111  84.901 152.249      85 152.703  85.146 152.823  85.197
 153.659   85.53 154.646      86 155.206   86.31 156.161  86.706 156.866   86.99
 156.951  86.995 157.025  86.998 157.059      87 157.418  87.172  158.33  87.733
 158.559  87.883 158.693  87.967 158.756      88 159.264  88.226 160.942      89
 161.237  89.166 161.349  89.249 162.355      90 163.448  90.856 163.618      91
 164.177  91.288  165.55      92 166.327  92.718 166.657      93 166.985  93.199
 167.188  93.308 168.582      94 168.752   94.09 169.659  94.538 170.232  94.811
 170.558  94.953 170.585  94.966   170.6  94.977 170.949  94.959 170.965   94.97
 171.018   94.98 171.051  94.982 171.082  94.975 171.155  94.957 171.227  94.938
 174.533  94.389 175.145  94.092 175.231  94.003 175.238  94.002  175.24      94
 175.578   93.39 175.787      93 175.885  92.836 176.278  92.069 176.305      92
 176.333  91.934 176.807      91 176.865  90.868 177.301      90 177.687  89.197
 177.774      89 178.163  88.181 178.243      88 178.638  87.166 178.711      87
 179.118   86.15 179.185      86 179.603  85.135  179.66      85 179.729  84.857
 180.213      84 180.223  83.978 180.702      83 180.708  82.989 180.781  82.363
 180.802  82.268 181.415  82.483 181.916  81.918 183.524   82.34  184.92   83.54
  186.36  83.933 188.145  85.572 189.662  86.934  189.97  87.881 190.205  88.746
 190.366  89.535 190.488  90.285 190.553  90.238 190.693  90.992  191.06   91.89
 191.304  92.682  191.52   93.44 191.565  94.087 191.611  94.731 191.856  94.611
 192.091  94.496 192.151  95.157 192.289  95.846 192.349  96.497 192.411  97.144
 192.472  97.787 192.536  98.428 192.601  99.064  192.67  99.696  193.13 100.999
  193.52 105.174 193.624 105.752 193.742  106.32 208.468 100.645 208.859 101.328
 209.378 101.969  209.76 102.642 209.924 103.373 210.234 104.058     240  97.809
#Mann= 3 ,0,0
       0    .025       0       0     .03       0     240    .028       0
Bank Sta=0,240
XS Rating Curve= 0 ,0
XS HTab Starting El and Incr=77.15,0.3, 97 
XS HTab Horizontal Distribution= 5 , 5 , 5 
Exp/Cntr=0.3,0.1

Type RM Length L Ch R = 1 ,34      ,50,50,50
XS GIS Cut Line=3
686415.0663956025507053.57923965686512.4172154855507123.74203512
686609.7680353675507193.90483059
Node Last Edited Time=oct-09-2025 17:46:23
#Sta/Elev= 277 
       0  90.905    .333  90.888    .505  90.893   2.003  90.692   2.146  90.692
   2.965  90.657   4.908  90.543   8.493  90.056   9.072  90.036    9.57  90.015
   9.685  90.015   9.865  90.016  10.144  90.016  10.173  90.015  11.025      90
  11.139  89.983  11.152  89.983  11.583  89.931  11.975  89.895  12.474  89.871
  12.593   89.88  12.654  89.879  12.874  89.865  12.974  89.854  13.105  89.838
  13.707  89.729  14.763   89.65  18.164  89.056  18.665   89.05  18.687  89.049
   21.07   89.03  21.591  89.021  22.713  89.022  22.924  89.017  23.048  89.015
  23.094  89.013  23.105  89.013  23.142  89.011  23.305      89   24.12  88.587
   24.24  88.538  24.762  88.343  24.979  88.277  25.308  88.201  25.441  88.143
  25.895  88.096  26.201  88.044  26.236   88.03  26.397      88  27.445  87.385
   27.84  87.191  28.117      87  28.268  86.907  28.299  86.881   28.88  86.434
  29.227      86  29.918  85.196  30.083      85  30.928  84.007  30.936      84
  31.811  83.406  32.599      83   33.52  82.121  33.651      82  35.344      82
  35.946  81.999  39.026  81.999   39.57  81.998  40.528  81.998  41.182  81.997
   41.75  81.996  42.448  81.996  42.999  81.939  47.377  81.489   51.02      81
  54.983  80.451  57.959  80.036  58.302      80  59.344  79.255  60.271  79.068
  60.279  79.065  60.286  79.063  61.223      79  63.357  78.993  63.657  78.992
  63.745  78.992  63.877   78.99  64.461  78.986  64.804  78.984  64.834  78.984
  64.919  78.983  65.248  78.982  65.383  78.979  65.688  78.974   66.08  78.971
  66.233  78.968  66.416  78.965  66.474  78.964  66.842  78.954  66.991  78.951
  67.829  78.948  70.337  78.742  75.318  78.382  77.574      78  77.663  77.999
  78.764  77.986  78.812  77.986  79.202  77.988  85.546  77.632  90.772  77.352
  99.607      77 136.143      77 136.308  77.283  136.57      78  136.88  78.559
 137.098      79 137.423  79.596 137.631      80 137.921  80.558 138.156      81
  138.43  81.639 138.445  81.661 138.604      82 138.988  82.638  139.05  82.793
 139.156      83 139.347  83.351 139.557  83.681 139.645  83.823 139.741      84
 139.761  84.029  140.31      85 140.426  85.163 140.915      86 141.103  86.261
 141.542      87 141.788  87.335 142.247      88 144.006  88.793 144.051  88.793
 146.416      88 147.117  87.292 147.453      87 148.217  86.208 148.449      86
 148.691  85.775 149.409      85 149.508  84.903 149.906   84.46 150.065  84.257
  150.13  84.174 150.215      84 150.232  83.964 150.704      83 150.804  82.785
 151.183      82 151.347  81.644 151.659      81 152.559  80.415 152.892      80
 153.475  79.535 154.084      79  154.83  78.378 155.184      78 161.221      78
 162.716  78.826 162.854  78.897 163.126      79 163.881   79.32 165.733  79.951
 165.821  79.982 165.895      80  165.97  80.001 166.328  80.023 166.804  80.043
 167.291  80.039 167.786  80.028 168.309      80 173.117  79.685  174.07  79.649
 174.158  79.638 174.252  79.625 175.479  79.475 175.931  79.375 176.606  79.214
 177.654      79 178.053  78.985 178.088  78.983 178.341  78.983 178.937  78.896
 179.162   78.87 179.618   78.79 180.033  78.749 183.228  78.006 183.251      78
  188.92      78 189.109  78.191 189.137   78.22 189.835      79  190.46  79.389
 191.281      80 191.478  80.189 192.212      81 192.327  81.082 193.555      82
 193.585  82.086 193.825      83 193.988  83.628 194.092      84 194.292  84.767
 194.359      85  194.57  85.825 194.622      86 194.656  86.105 195.161      87
 195.412   87.48 195.568      88 195.669  88.422 195.822      89 195.984  89.672
  196.07      90 196.255  90.745 196.297   90.95 196.306      91 196.312  91.024
  196.52      92 196.558  92.274 196.707      93  196.83  93.582 196.919      94
 197.076  94.737 197.119      95 197.281  95.766 197.345      96 197.543  96.955
 197.548      97 197.713  97.769 197.777      98  197.97    98.7 198.023  98.825
 198.096      99 198.224  99.305 198.378  99.671 198.493  99.919  198.53     100
  198.86 100.713 198.992     101 199.243 101.553  199.45     102 199.645 102.422
 199.909     103 200.052 103.315 200.368     104 200.471 104.224 200.829     105
 200.897 105.148 201.286     106 201.323 106.082 201.746     107 201.757 107.024
 201.962 107.468 202.168 107.972 202.179     108 202.553 108.924 202.584     109
 202.945 109.882 202.993     110 203.335 110.845 203.398     111  203.73 111.812
 203.806     112 204.126 112.783 204.214     113 206.526     113 218.834 113.019
 219.554  113.02     240 109.885
#Mann= 3 ,0,0
       0    .025       0       0     .03       0     240    .028       0
Bank Sta=0,240
XS Rating Curve= 0 ,0
XS HTab Starting El and Incr=77.15,0.3, 100 
XS HTab Horizontal Distribution= 5 , 5 , 5 
Exp/Cntr=0.3,0.1

Type RM Length L Ch R = 1 ,33      ,50,50,50
XS GIS Cut Line=3
686385.8318974895507094.14208127686483.1827173725507164.30487674
686580.5335372545507234.46767221
Node Last Edited Time=oct-09-2025 17:46:23
#Sta/Elev= 139 
       0  89.472   9.113  89.091  10.262  89.043  10.288  89.042  10.569   89.03
  10.724  89.023  11.278      89  11.508      89  11.588  88.999  11.909  88.998
   12.02  88.996  12.085  88.996    12.2  88.995  12.242  88.995  14.411  88.755
  19.808  88.159   21.19      88  21.255  87.997  21.272  87.997   21.37  87.995
  21.622  87.988  21.659  87.988   21.75  87.987  23.749  87.636  24.543  87.507
  26.287  87.201   27.33      87  28.446  86.327  28.756  86.131  28.952      86
  29.141  85.915  29.382  85.827  29.426   85.81  31.406      85  32.027  84.607
  33.115      84  33.901  83.666  35.608      83  39.856  82.132  40.484      82
  40.689  81.998  40.915  81.996   41.05  81.996  41.117  81.995  41.217  81.995
  41.236  81.994  41.751  81.923  43.852  81.643  44.697  81.552  46.122  81.397
  46.217  81.385  49.337      81  49.646  80.928  52.696      80  53.876  79.392
  54.564      79   55.33  78.564  56.522      78  57.423   77.53  58.253      77
 144.363      77 145.339  77.498 146.345      78 148.104  78.906 148.298      79
 148.388  79.067 150.214      80 150.472  80.422 150.833      81 151.154  81.535
  151.42      82 151.951  82.875 152.018      83 152.085  83.057 152.792      84
 152.858  84.135 153.464      85 153.629  85.323 154.014      86 154.478  86.794
 154.584      87 155.172  87.948   155.2      88  155.77  88.983 155.778      89
 155.803  89.072 155.956  89.696 155.982  89.798 155.998  89.881 156.024      90
 156.184  90.754 156.236      91 156.395   91.74  156.45      92 156.607  92.736
 156.662      93 156.702   93.12 156.892      94 156.937  94.142  157.14      95
  157.34  95.799 157.402      96 157.606  96.784 157.671      97 157.734  97.199
 157.951      98 158.044   98.25 158.266      99 158.471  99.698 158.601     100
 158.721 100.275 158.939     101 159.157 101.763 159.229     102 159.256 102.137
 159.599     103  159.87   103.8 160.028     104 160.447 104.862 160.506     105
 160.649  105.28 160.951     106 160.991 106.097 161.429     107 161.518 107.224
 161.985     108 162.475 108.595 162.621     109 163.182 109.697 163.267     110
 163.758 110.648 164.048     111 164.526 111.462 165.376     112 168.911 112.425
 170.678 112.614 174.204     113 203.518     113     240 113.057
#Mann= 3 ,0,0
       0    .025       0       0     .03       0     240    .028       0
Bank Sta=0,240
XS Rating Curve= 0 ,0
XS HTab Starting El and Incr=77.15,0.3, 100 
XS HTab Horizontal Distribution= 5 , 5 , 5 
Exp/Cntr=0.3,0.1

Type RM Length L Ch R = 1 ,32      ,50,50,50
XS GIS Cut Line=3
686356.5973993775507134.70492289686453.9482192595507204.86771836
686551.2990391425507275.03051383
Node Last Edited Time=oct-09-2025 17:46:23
#Sta/Elev= 174 
       0      89    .021  88.999    .118  88.996    .132  88.996   2.489  88.825
   2.641  88.812   3.027   88.78   3.579  88.732   4.087  88.687   6.436  88.503
   8.011  88.355  10.943  88.075  11.185  88.055  11.322  88.043  11.746      88
   11.77  87.999  12.663  87.879  13.741  87.735  15.484  87.521   17.15  87.297
  19.193  87.006  19.279  87.003  19.323      87  20.549  86.654  22.722  86.119
  23.034  86.041   23.22      86  25.049  85.404  26.099  85.014  26.124  85.006
  26.135      85  26.147   84.99  27.836      84  28.383  83.607  29.081  83.071
   29.18      83  31.372  82.131  31.531  82.067  31.687      82  31.698      82
   34.86  81.381  35.632  81.234   36.73  81.008  37.196  81.001   37.23  81.001
  37.296      81   37.62  80.997  37.844  80.996  37.863  80.996   37.95  80.995
  37.974  80.995  38.011  80.993  38.111  80.991   38.17  80.991  39.191  80.966
  39.249  80.966  39.849  80.961  40.265  80.922  43.712  80.648  44.225  80.607
  44.884  80.548   45.86  80.424  47.658  80.167  48.323  80.108  48.934      80
  49.193  79.877   51.78      79   52.56  78.556  53.787      78  54.669  77.652
  56.061      77  62.011      77  62.028  77.001  62.508  77.003  62.527  77.003
   63.22  77.007  66.277   77.03   72.36  77.077  72.481  77.076  80.363  77.025
  81.018  77.022  83.435      77  87.394      77  99.806  76.999 115.561  76.998
     120  76.998 124.234  76.999 134.418  76.999 143.165      77 144.191      77
 144.598  77.596 144.846      78 144.904  78.276 144.994      79 145.063   79.33
 145.145      80 145.207  80.308 145.289      81  145.38  81.751 145.411      82
 145.504  82.783 145.532      83 145.564  83.276 145.651      84 145.747  84.816
 145.772      85 145.881  85.902 145.893      86 146.003  86.951  146.01      87
 146.016  87.049 146.121      88 146.156  88.305 146.203  88.662 146.238      89
 146.259  89.189 146.335  89.957 146.339      90 146.343  90.031  146.48      91
 146.488   91.06 146.811      92 146.897  92.154 146.999  92.385 147.328      93
 147.412  93.192 147.769      94  147.92  94.373 148.187      95 148.522  95.877
 148.571      96 148.613  96.119 149.024  96.936 149.061      97 149.112  97.075
 150.153      98 150.829  98.837 150.928      99  151.64   99.92 151.687     100
 151.758 100.115 152.487     101 153.037 101.741 153.236     102 153.418 102.241
 153.982     103 154.236 103.441 154.747     104 154.857 104.119  155.07 104.419
 155.104 104.484 155.298     105 155.598 105.632 155.827     106 156.194 106.784
 156.334     107 156.859  107.94 156.898     108 157.403 108.839 157.508     109
 157.986 109.782  158.13     110  158.51 110.402 158.908     111 159.422 111.539
 161.609     112 161.664 112.008 162.227 112.098 167.193 112.922 167.615 112.988
 167.678     113 191.164     113 228.401 113.044     240 113.062
#Mann= 3 ,0,0
       0    .025       0       0     .03       0     240    .028       0
Bank Sta=0,240
XS Rating Curve= 0 ,0
XS HTab Starting El and Incr=77.148,0.3, 100 
XS HTab Horizontal Distribution= 5 , 5 , 5 
Exp/Cntr=0.3,0.1

Type RM Length L Ch R = 1 ,31      ,50,50,50
XS GIS Cut Line=3
686368.6383486035507113.44052812 686410.025539485507226.07755769
686451.4127303575507338.71458727
Node Last Edited Time=oct-09-2025 17:46:23
#Sta/Elev= 196 
       0  89.308   1.686  89.256    2.78  89.222   5.338  89.139   6.511  89.102
  10.173  89.002  10.645  89.002  11.065  89.001    11.3      89  12.825  88.861
  13.012  88.842  13.259  88.816  13.932  88.746  15.435   88.59  18.327  88.286
  20.652  88.052  21.109  88.004  21.497  88.001  21.551      88  21.566      88
  21.687  87.997  23.309   87.76  24.684  87.568   24.92  87.537  26.145  87.362
  28.486  87.002  28.558      87  28.806  86.985  29.783   86.69   30.55  86.499
  31.847  86.217  31.902  86.207  31.974  86.191  32.721      86  34.529  85.306
  35.201      85  35.583  84.794  36.823      84  37.418    83.6  37.561  83.541
  38.607      83  39.825  82.563  40.435  82.396  40.979  82.191  41.507      82
  41.548  81.996  42.508  81.832  43.693   81.64  44.697  81.478  45.156  81.418
  46.143  81.239  47.658  81.034  48.021  81.036  48.196  81.034  48.609  81.019
   48.67  81.018  48.723  81.015  48.897  81.011  48.973  81.007  49.076      81
  51.702  80.732  57.682      80  58.012  79.921  59.404  79.563  62.435      79
  63.922  78.405  64.717      78  65.984  77.513  68.147  77.044  68.219  77.026
  68.318  77.002  68.327      77  72.954      77  75.514  77.005  75.947  77.005
  82.962  77.019  84.643  77.019  87.382   77.02  92.004  77.012  92.395  77.011
  92.786  77.011  95.456  77.009 100.235  77.001 100.429  77.001 100.479      77
 100.852      77 101.289  76.999 101.411  76.999 101.535  76.998 101.599  76.998
   106.8  76.765 117.971  76.263 118.504  76.239     120  76.184  121.39  76.133
 124.899  76.001 125.487      76   148.7      76 148.936  76.526 149.198  76.802
 149.364      77 149.427  77.335 149.584      78 149.755  78.809 149.771      79